!-Generator IDFEditor 1.47
!-Option SortedOrder
!-NOTE: All comments with '!-' are ignored by the IDFEditor and are generated automatically.
!-      Use '!' comments if they need to be retained when using the IDFEditor.
!-   ===========  ALL OBJECTS IN CLASS: VERSION ===========

  Version,8.7;

!-   ===========  ALL OBJECTS IN CLASS: SIMULATIONCONTROL ===========

  SimulationControl,
    Yes,                     !- Do Zone Sizing Calculation
    Yes,                     !- Do System Sizing Calculation
    No,                      !- Do Plant Sizing Calculation
    No,                      !- Run Simulation for Sizing Periods
    Yes;                     !- Run Simulation for Weather File Run Periods

!-   ===========  ALL OBJECTS IN CLASS: BUILDING ===========

  Building,
    HIS,                     !- Name
    0.0,                     !- North Axis {deg}
    City,                    !- Terrain
    0.04,                    !- Loads Convergence Tolerance Value
    0.4,                     !- Temperature Convergence Tolerance Value {deltaC}
    FullExteriorWithReflections,  !- Solar Distribution
    25,                      !- Maximum Number of Warmup Days
    6;                       !- Minimum Number of Warmup Days

!-   ===========  ALL OBJECTS IN CLASS: SHADOWCALCULATION ===========

  ShadowCalculation,
    AverageOverDaysInFrequency,  !- Calculation Method
    20,                      !- Calculation Frequency
    15000,                   !- Maximum Figures in Shadow Overlap Calculations
    SutherlandHodgman,       !- Polygon Clipping Algorithm
    SimpleSkyDiffuseModeling;!- Sky Diffuse Modeling Algorithm

!-   ===========  ALL OBJECTS IN CLASS: SURFACECONVECTIONALGORITHM:INSIDE ===========

  SurfaceConvectionAlgorithm:Inside,TARP;

!-   ===========  ALL OBJECTS IN CLASS: SURFACECONVECTIONALGORITHM:OUTSIDE ===========

  SurfaceConvectionAlgorithm:Outside,DOE-2;

!-   ===========  ALL OBJECTS IN CLASS: HEATBALANCEALGORITHM ===========

  HeatBalanceAlgorithm,ConductionTransferFunction,200,0.1,1000;

!-   ===========  ALL OBJECTS IN CLASS: TIMESTEP ===========

  Timestep,6;

!-   ===========  ALL OBJECTS IN CLASS: SITE:LOCATION ===========

  Site:Location,
    SANTA MARIA,             !- Name
    -29.4,                   !- Latitude {deg}
    -53.48,                  !- Longitude {deg}
    -3,                      !- Time Zone {hr}
    95;                      !- Elevation {m}

!-   ===========  ALL OBJECTS IN CLASS: SIZINGPERIOD:DESIGNDAY ===========

  SizingPeriod:DesignDay,
    Santa Maria_Inverno,     !- Name
    6,                       !- Month
    28,                      !- Day of Month
    Wednesday,               !- Day Type
    18.6,                    !- Maximum Dry-Bulb Temperature {C}
    9.8,                     !- Daily Dry-Bulb Temperature Range {deltaC}
    DefaultMultipliers,      !- Dry-Bulb Temperature Range Modifier Type
    ,                        !- Dry-Bulb Temperature Range Modifier Day Schedule Name
    DewPoint,                !- Humidity Condition Type
    9.4,                     !- Wetbulb or DewPoint at Maximum Dry-Bulb {C}
    ,                        !- Humidity Condition Day Schedule Name
    ,                        !- Humidity Ratio at Maximum Dry-Bulb {kgWater/kgDryAir}
    ,                        !- Enthalpy at Maximum Dry-Bulb {J/kg}
    ,                        !- Daily Wet-Bulb Temperature Range {deltaC}
    100000,                  !- Barometric Pressure {Pa}
    2,                       !- Wind Speed {m/s}
    90,                      !- Wind Direction {deg}
    No,                      !- Rain Indicator
    No,                      !- Snow Indicator
    No,                      !- Daylight Saving Time Indicator
    ASHRAEClearSky,          !- Solar Model Indicator
    ,                        !- Beam Solar Day Schedule Name
    ,                        !- Diffuse Solar Day Schedule Name
    ,                        !- ASHRAE Clear Sky Optical Depth for Beam Irradiance (taub) {dimensionless}
    ,                        !- ASHRAE Clear Sky Optical Depth for Diffuse Irradiance (taud) {dimensionless}
    0;                       !- Sky Clearness

  SizingPeriod:DesignDay,
    Santa Maria_Verao,       !- Name
    1,                       !- Month
    17,                      !- Day of Month
    Wednesday,               !- Day Type
    32,                      !- Maximum Dry-Bulb Temperature {C}
    10.5,                    !- Daily Dry-Bulb Temperature Range {deltaC}
    DefaultMultipliers,      !- Dry-Bulb Temperature Range Modifier Type
    ,                        !- Dry-Bulb Temperature Range Modifier Day Schedule Name
    DewPoint,                !- Humidity Condition Type
    20,                      !- Wetbulb or DewPoint at Maximum Dry-Bulb {C}
    ,                        !- Humidity Condition Day Schedule Name
    ,                        !- Humidity Ratio at Maximum Dry-Bulb {kgWater/kgDryAir}
    ,                        !- Enthalpy at Maximum Dry-Bulb {J/kg}
    ,                        !- Daily Wet-Bulb Temperature Range {deltaC}
    99804,                   !- Barometric Pressure {Pa}
    2.9,                     !- Wind Speed {m/s}
    140,                     !- Wind Direction {deg}
    No,                      !- Rain Indicator
    No,                      !- Snow Indicator
    No,                      !- Daylight Saving Time Indicator
    ASHRAEClearSky,          !- Solar Model Indicator
    ,                        !- Beam Solar Day Schedule Name
    ,                        !- Diffuse Solar Day Schedule Name
    ,                        !- ASHRAE Clear Sky Optical Depth for Beam Irradiance (taub) {dimensionless}
    ,                        !- ASHRAE Clear Sky Optical Depth for Diffuse Irradiance (taud) {dimensionless}
    1;                       !- Sky Clearness

!-   ===========  ALL OBJECTS IN CLASS: RUNPERIOD ===========

  RunPeriod,
    Anual,                   !- Name
    1,                       !- Begin Month
    1,                       !- Begin Day of Month
    12,                      !- End Month
    31,                      !- End Day of Month
    UseWeatherFile,          !- Day of Week for Start Day
    Yes,                     !- Use Weather File Holidays and Special Days
    No,                      !- Use Weather File Daylight Saving Period
    Yes,                     !- Apply Weekend Holiday Rule
    Yes,                     !- Use Weather File Rain Indicators
    Yes,                     !- Use Weather File Snow Indicators
    1,                       !- Number of Times Runperiod to be Repeated
    No;                      !- Increment Day of Week on repeat

!-   ===========  ALL OBJECTS IN CLASS: RUNPERIODCONTROL:SPECIALDAYS ===========

  RunPeriodControl:SpecialDays,
    Conf Universal,          !- Name
    January 1,               !- Start Date
    1,                       !- Duration {days}
    Holiday;                 !- Special Day Type

  RunPeriodControl:SpecialDays,
    Carnaval,                !- Name
    3rd Tuesday in February, !- Start Date
    1,                       !- Duration {days}
    Holiday;                 !- Special Day Type

  RunPeriodControl:SpecialDays,
    Niver Cidade,            !- Name
    April 1,                 !- Start Date
    1,                       !- Duration {days}
    Holiday;                 !- Special Day Type

  RunPeriodControl:SpecialDays,
    Sexta-Feira Santa,       !- Name
    1st Friday in April,     !- Start Date
    1,                       !- Duration {days}
    Holiday;                 !- Special Day Type

  RunPeriodControl:SpecialDays,
    Tiradentes,              !- Name
    April 21,                !- Start Date
    1,                       !- Duration {days}
    Holiday;                 !- Special Day Type

  RunPeriodControl:SpecialDays,
    Dia do Trabalho,         !- Name
    May 1,                   !- Start Date
    1,                       !- Duration {days}
    Holiday;                 !- Special Day Type

  RunPeriodControl:SpecialDays,
    Corpus Christi,          !- Name
    1st Thursday in June,    !- Start Date
    1,                       !- Duration {days}
    Holiday;                 !- Special Day Type

  RunPeriodControl:SpecialDays,
    Sao Lourenco,            !- Name
    August 10,               !- Start Date
    1,                       !- Duration {days}
    Holiday;                 !- Special Day Type

  RunPeriodControl:SpecialDays,
    Independencia,           !- Name
    September 7,             !- Start Date
    1,                       !- Duration {days}
    Holiday;                 !- Special Day Type

  RunPeriodControl:SpecialDays,
    Nossa Senhora Aparecida, !- Name
    October 12,              !- Start Date
    1,                       !- Duration {days}
    Holiday;                 !- Special Day Type

  RunPeriodControl:SpecialDays,
    Finados,                 !- Name
    November 2,              !- Start Date
    1,                       !- Duration {days}
    Holiday;                 !- Special Day Type

  RunPeriodControl:SpecialDays,
    Proc Republica,          !- Name
    November 15,             !- Start Date
    1,                       !- Duration {days}
    Holiday;                 !- Special Day Type

  RunPeriodControl:SpecialDays,
    Natal,                   !- Name
    December 25,             !- Start Date
    1,                       !- Duration {days}
    Holiday;                 !- Special Day Type

!-   ===========  ALL OBJECTS IN CLASS: RUNPERIODCONTROL:DAYLIGHTSAVINGTIME ===========

  RunPeriodControl:DaylightSavingTime,
    2nd Sunday in March,     !- Start Date
    1st Sunday in November;  !- End Date

!-   ===========  ALL OBJECTS IN CLASS: SITE:GROUNDTEMPERATURE:BUILDINGSURFACE ===========

  Site:GroundTemperature:BuildingSurface,25.25,25.01,23.55,21.41,19.89,18.79,18.29,18.42,19.48,21.25,22.63,22.92;

!-   ===========  ALL OBJECTS IN CLASS: SCHEDULETYPELIMITS ===========

  ScheduleTypeLimits,
    Any Number;              !- Name

  ScheduleTypeLimits,
    Fraction,                !- Name
    0.0,                     !- Lower Limit Value
    1.0,                     !- Upper Limit Value
    CONTINUOUS;              !- Numeric Type

  ScheduleTypeLimits,
    Temperature,             !- Name
    -60,                     !- Lower Limit Value
    200,                     !- Upper Limit Value
    CONTINUOUS;              !- Numeric Type

  ScheduleTypeLimits,
    On/Off,                  !- Name
    0,                       !- Lower Limit Value
    1,                       !- Upper Limit Value
    DISCRETE;                !- Numeric Type

  ScheduleTypeLimits,
    Control Type,            !- Name
    0,                       !- Lower Limit Value
    4,                       !- Upper Limit Value
    DISCRETE;                !- Numeric Type

  ScheduleTypeLimits,
    Humidity,                !- Name
    10,                      !- Lower Limit Value
    90,                      !- Upper Limit Value
    CONTINUOUS;              !- Numeric Type

  ScheduleTypeLimits,
    Number;                  !- Name

!-   ===========  ALL OBJECTS IN CLASS: SCHEDULE:COMPACT ===========

  Schedule:Compact,
    Ocupation_rooms,         !- Name
    Fraction,                !- Schedule Type Limits Name
    Through: 12/31,          !- Field 1
    For: Weekdays,           !- Field 2
    Until: 07:00,1,          !- Field 3
    Until: 20:00,0,          !- Field 5
    Until: 21:00,.5,         !- Field 7
    Until: 24:00,1,          !- Field 9
    For: AllOtherDays,       !- Field 11
    Until: 09:00,1,          !- Field 12
    Until: 10:00,.5,         !- Field 14
    Until: 20:00,0,          !- Field 16
    Until: 21:00,.5,         !- Field 18
    Until: 24:00,1;          !- Field 20

  Schedule:Compact,
    Ocupation_living_room,   !- Name
    Fraction,                !- Schedule Type Limits Name
    Through: 12/31,          !- Field 1
    For: Weekdays,           !- Field 2
    Until: 13:00,0,          !- Field 3
    Until: 18:00,.25,        !- Field 5
    Until: 19:00,1,          !- Field 7
    Until: 21:00,.5,         !- Field 9
    Until: 24:00,0,          !- Field 11
    For: AllOtherDays,       !- Field 13
    Until: 10:00,0,          !- Field 14
    Until: 11:00,.25,        !- Field 16
    Until: 12:00,.75,        !- Field 18
    Until: 13:00,0,          !- Field 20
    Until: 14:00,.75,        !- Field 22
    Until: 17:00,.5,         !- Field 24
    Until: 19:00,.25,        !- Field 26
    Until: 21:00,.5,         !- Field 28
    Until: 24:00,0;          !- Field 30

  Schedule:Compact,
    Ilumination_rooms,       !- Name
    Fraction,                !- Schedule Type Limits Name
    Through: 12/31,          !- Field 1
    For: Weekdays,           !- Field 2
    Until: 06:00,0,          !- Field 3
    Until: 07:00,1,          !- Field 5
    Until: 20:00,0,          !- Field 7
    Until: 22:00,1,          !- Field 9
    Until: 24:00,0,          !- Field 11
    For: AllOtherDays,       !- Field 13
    Until: 08:00,0,          !- Field 14
    Until: 09:00,1,          !- Field 16
    Until: 20:00,0,          !- Field 18
    Until: 22:00,1,          !- Field 20
    Until: 24:00,0;          !- Field 22

  Schedule:Compact,
    Ilumination_living_room, !- Name
    Fraction,                !- Schedule Type Limits Name
    Through: 12/31,          !- Field 1
    For: Weekdays,           !- Field 2
    Until: 16:00,0,          !- Field 3
    Until: 21:00,1,          !- Field 5
    Until: 24:00,0,          !- Field 7
    For: AllOtherDays,       !- Field 9
    Until: 10:00,0,          !- Field 10
    Until: 12:00,1,          !- Field 12
    Until: 16:00,0,          !- Field 14
    Until: 21:00,1,          !- Field 16
    Until: 24:00,0;          !- Field 18

  Schedule:Compact,
    Activities_rooms,        !- Name
    Any Number,              !- Schedule Type Limits Name
    Through: 12/31,          !- Field 1
    For: AllDays,            !- Field 2
    Until: 24:00,81;         !- Field 3

  Schedule:Compact,
    Activities_living_rooms, !- Name
    Any Number,              !- Schedule Type Limits Name
    Through: 12/31,          !- Field 1
    For: AllDays,            !- Field 2
    Until: 24:00,108;        !- Field 3

  Schedule:Compact,
    Equipments,              !- Name
    Fraction,                !- Schedule Type Limits Name
    Through: 12/31,          !- Field 1
    For: AllDays,            !- Field 2
    Until: 24:00,1;          !- Field 3

  Schedule:Compact,
    VN_20,                   !- Name
    Temperature,             !- Schedule Type Limits Name
    Through: 12/31,          !- Field 1
    For: AllDays,            !- Field 2
    Until: 24:00,20;         !- Field 3

  Schedule:Compact,
    Always On,               !- Name
    On/Off,                  !- Schedule Type Limits Name
    Through: 12/31,          !- Field 1
    For: AllDays,            !- Field 2
    Until: 24:00,1.0;        !- Field 3

  Schedule:Compact,
    Always Off,              !- Name
    On/Off,                  !- Schedule Type Limits Name
    Through: 12/31,          !- Field 1
    For: AllDays,            !- Field 2
    Until: 24:00,0.0;        !- Field 3

  Schedule:Compact,
    ClothingInsulationSchedule,  !- Name
    Any Number,              !- Schedule Type Limits Name
    Through: 04/30,          !- Field 1
    For: AllDays,            !- Field 2
    Until: 24:00,.5,         !- Field 3
    Through: 09/30,          !- Field 5
    For: AllDays,            !- Field 6
    Until: 24:00,1,          !- Field 7
    Through: 12/31,          !- Field 9
    For: AllDays,            !- Field 10
    Until: 24:00,.5;         !- Field 11

  Schedule:Compact,
    Air_conditioning,        !- Name
    Fraction,                !- Schedule Type Limits Name
    Through: 12/31,          !- Field 1
    For: AllDays,            !- Field 2
    Until: 08:00,1,          !- Field 3
    Until: 21:00,0,          !- Field 5
    Until: 24:00,1;          !- Field 7

  Schedule:Compact,
    Natural_ventilation,     !- Name
    Fraction,                !- Schedule Type Limits Name
    Through: 12/31,          !- Field 1
    For: AllDays,            !- Field 2
    Until: 08:00,0,          !- Field 3
    Until: 21:00,1,          !- Field 5
    Until: 24:00,0;          !- Field 7

  Schedule:Compact,
    Window Shading,          !- Name
    On/Off,                  !- Schedule Type Limits Name
    Through: 3/20,           !- Field 1
    For: AllDays,            !- Field 2
    Until: 24:00,1,          !- Field 3
    Through: 9/21,           !- Field 5
    For: AllDays,            !- Field 6
    Until: 08:00,1,          !- Field 7
    Until: 21:00,0,          !- Field 9
    Until: 24:00,1,          !- Field 11
    Through: 12/31,          !- Field 13
    For: AllDays,            !- Field 14
    Until: 24:00,1;          !- Field 15

!-   ===========  ALL OBJECTS IN CLASS: MATERIAL ===========

  Material,
    Radier concreto,         !- Name
    Rough,                   !- Roughness
    0.1,                     !- Thickness {m}
    1.75,                    !- Conductivity {W/m-K}
    2200,                    !- Density {kg/m3}
    1000;                    !- Specific Heat {J/kg-K}

  Material,
    Argamassa piso,          !- Name
    Smooth,                  !- Roughness
    0.02,                    !- Thickness {m}
    1.15,                    !- Conductivity {W/m-K}
    1800,                    !- Density {kg/m3}
    1000,                    !- Specific Heat {J/kg-K}
    0.85,                    !- Thermal Absorptance
    0.3,                     !- Solar Absorptance
    0.3;                     !- Visible Absorptance

  Material,
    Forro de madeira,        !- Name
    MediumSmooth,            !- Roughness
    0.02,                    !- Thickness {m}
    0.12,                    !- Conductivity {W/m-K}
    450,                     !- Density {kg/m3}
    1340;                    !- Specific Heat {J/kg-K}

  Material,
    Telha fibrocimento,      !- Name
    Smooth,                  !- Roughness
    0.008,                   !- Thickness {m}
    0.65,                    !- Conductivity {W/m-K}
    1800,                    !- Density {kg/m3}
    840,                     !- Specific Heat {J/kg-K}
    0.9,                     !- Thermal Absorptance
    0.6,                     !- Solar Absorptance
    0.6;                     !- Visible Absorptance

  Material,
    Ceramica equivalente,    !- Name
    MediumSmooth,            !- Roughness
    0.14,                    !- Thickness {m}
    0.7015,                  !- Conductivity {W/m-K}
    609.28,                  !- Density {kg/m3}
    920;                     !- Specific Heat {J/kg-K}

  Material,
    Argamassa reboco ext,    !- Name
    Smooth,                  !- Roughness
    0.02,                    !- Thickness {m}
    1.15,                    !- Conductivity {W/m-K}
    1800,                    !- Density {kg/m3}
    1000,                    !- Specific Heat {J/kg-K}
    0.9,                     !- Thermal Absorptance
    0.2,                     !- Solar Absorptance
    0.2;                     !- Visible Absorptance

  Material,
    Madeira  porta,          !- Name
    Smooth,                  !- Roughness
    0.03,                    !- Thickness {m}
    0.23,                    !- Conductivity {W/m-K}
    600,                     !- Density {kg/m3}
    1340,                    !- Specific Heat {J/kg-K}
    0.9,                     !- Thermal Absorptance
    0.7,                     !- Solar Absorptance
    0.7;                     !- Visible Absorptance

  Material,
    Revestimento Ceramico 10mm,  !- Name
    MediumSmooth,            !- Roughness
    0.01,                    !- Thickness {m}
    1.3,                     !- Conductivity {W/m-K}
    2300,                    !- Density {kg/m3}
    965,                     !- Specific Heat {J/kg-K}
    0.9,                     !- Thermal Absorptance
    0.2,                     !- Solar Absorptance
    0.2;                     !- Visible Absorptance

  Material,
    MDF porta,               !- Name
    Rough,                   !- Roughness
    0.02,                    !- Thickness {m}
    0.14,                    !- Conductivity {W/m-K}
    600,                     !- Density {kg/m3}
    2300,                    !- Specific Heat {J/kg-K}
    0.9,                     !- Thermal Absorptance
    0.7,                     !- Solar Absorptance
    0.7;                     !- Visible Absorptance

  Material,
    Ceramica interna,        !- Name
    MediumSmooth,            !- Roughness
    0.11,                    !- Thickness {m}
    1,                       !- Conductivity {W/m-K}
    1800,                    !- Density {kg/m3}
    920;                     !- Specific Heat {J/kg-K}

  Material,
    Argamassa reboco interno,!- Name
    Smooth,                  !- Roughness
    0.02,                    !- Thickness {m}
    1.15,                    !- Conductivity {W/m-K}
    1800,                    !- Density {kg/m3}
    1000,                    !- Specific Heat {J/kg-K}
    0.9,                     !- Thermal Absorptance
    0.2,                     !- Solar Absorptance
    0.2;                     !- Visible Absorptance

  Material,
    EPS_placa15mm,           !- Name
    Rough,                   !- Roughness
    0.015,                   !- Thickness {m}
    0.04,                    !- Conductivity {W/m-K}
    35,                      !- Density {kg/m3}
    1420;                    !- Specific Heat {J/kg-K}

!-   ===========  ALL OBJECTS IN CLASS: MATERIAL:AIRGAP ===========

  Material:AirGap,
    Ar ascendente maior 5,   !- Name
    0.14;                    !- Thermal Resistance {m2-K/W}

!-   ===========  ALL OBJECTS IN CLASS: WINDOWMATERIAL:GLAZING ===========

  WindowMaterial:Glazing,
    Clear 3mm,               !- Name
    SpectralAverage,         !- Optical Data Type
    ,                        !- Window Glass Spectral Data Set Name
    0.003,                   !- Thickness {m}
    0.837,                   !- Solar Transmittance at Normal Incidence
    0.075,                   !- Front Side Solar Reflectance at Normal Incidence
    0.075,                   !- Back Side Solar Reflectance at Normal Incidence
    0.898,                   !- Visible Transmittance at Normal Incidence
    0.081,                   !- Front Side Visible Reflectance at Normal Incidence
    0.081,                   !- Back Side Visible Reflectance at Normal Incidence
    0,                       !- Infrared Transmittance at Normal Incidence
    0.84,                    !- Front Side Infrared Hemispherical Emissivity
    0.84,                    !- Back Side Infrared Hemispherical Emissivity
    0.9;                     !- Conductivity {W/m-K}

!-   ===========  ALL OBJECTS IN CLASS: WINDOWMATERIAL:BLIND ===========

  WindowMaterial:Blind,
    Persiana com alta refletancia,  !- Name
    Horizontal,              !- Slat Orientation
    0.025,                   !- Slat Width {m}
    0.01875,                 !- Slat Separation {m}
    0.001,                   !- Slat Thickness {m}
    45.0,                    !- Slat Angle {deg}
    0.9,                     !- Slat Conductivity {W/m-K}
    0.0,                     !- Slat Beam Solar Transmittance
    0.8,                     !- Front Side Slat Beam Solar Reflectance
    0.8,                     !- Back Side Slat Beam Solar Reflectance
    0.0,                     !- Slat Diffuse Solar Transmittance
    0.8,                     !- Front Side Slat Diffuse Solar Reflectance
    0.8,                     !- Back Side Slat Diffuse Solar Reflectance
    0.0,                     !- Slat Beam Visible Transmittance
    0.8,                     !- Front Side Slat Beam Visible Reflectance
    0.8,                     !- Back Side Slat Beam Visible Reflectance
    0.0,                     !- Slat Diffuse Visible Transmittance
    0.8,                     !- Front Side Slat Diffuse Visible Reflectance
    0.8,                     !- Back Side Slat Diffuse Visible Reflectance
    0.0,                     !- Slat Infrared Hemispherical Transmittance
    0.9,                     !- Front Side Slat Infrared Hemispherical Emissivity
    0.9,                     !- Back Side Slat Infrared Hemispherical Emissivity
    0.050,                   !- Blind to Glass Distance {m}
    0.5,                     !- Blind Top Opening Multiplier
    0.5,                     !- Blind Bottom Opening Multiplier
    0.5,                     !- Blind Left Side Opening Multiplier
    0.5,                     !- Blind Right Side Opening Multiplier
    ,                        !- Minimum Slat Angle {deg}
    ;                        !- Maximum Slat Angle {deg}

!-   ===========  ALL OBJECTS IN CLASS: CONSTRUCTION ===========

  Construction,
    Exterior Floor,          !- Name
    Radier concreto,         !- Outside Layer
    Argamassa piso,          !- Layer 2
    Revestimento Ceramico 10mm;  !- Layer 3

  Construction,
    Exterior Wall,           !- Name
    Argamassa reboco ext,    !- Outside Layer
    Ceramica equivalente,    !- Layer 2
    Argamassa reboco ext;    !- Layer 3

  Construction,
    Interior Wall,           !- Name
    Argamassa reboco interno,!- Outside Layer
    Ceramica interna,        !- Layer 2
    Argamassa reboco interno;!- Layer 3

  Construction,
    Exterior Roof,           !- Name
    Telha fibrocimento,      !- Outside Layer
    EPS_placa15mm,           !- Layer 2
    Ar ascendente maior 5,   !- Layer 3
    Forro de madeira;        !- Layer 4

  Construction,
    Exterior Window,         !- Name
    Clear 3mm;               !- Outside Layer

  Construction,
    Exterior Door,           !- Name
    Madeira  porta;          !- Outside Layer

  Construction,
    Interior Door,           !- Name
    MDF porta;               !- Outside Layer

  Construction,
    Shaded construction,     !- Name
    Persiana com alta refletancia,  !- Outside Layer
    Clear 3mm;               !- Layer 2

!-   ===========  ALL OBJECTS IN CLASS: GLOBALGEOMETRYRULES ===========

  GlobalGeometryRules,
    UpperLeftCorner,         !- Starting Vertex Position
    Counterclockwise,        !- Vertex Entry Direction
    Relative;                !- Coordinate System

!-   ===========  ALL OBJECTS IN CLASS: ZONE ===========

  Zone,
    DORM_2,                  !- Name
    0.0,                     !- Direction of Relative North {deg}
    0.0,                     !- X Origin {m}
    0.0,                     !- Y Origin {m}
    0.0,                     !- Z Origin {m}
    ,                        !- Type
    1;                       !- Multiplier

  Zone,
    DORM_1,                  !- Name
    0.0,                     !- Direction of Relative North {deg}
    0.0,                     !- X Origin {m}
    0.0,                     !- Y Origin {m}
    0.0,                     !- Z Origin {m}
    ,                        !- Type
    1;                       !- Multiplier

  Zone,
    ESTAR_COZ,               !- Name
    0.0,                     !- Direction of Relative North {deg}
    0.0,                     !- X Origin {m}
    0.0,                     !- Y Origin {m}
    0.0,                     !- Z Origin {m}
    ,                        !- Type
    1;                       !- Multiplier

  Zone,
    BANHEIRO,                !- Name
    0.0,                     !- Direction of Relative North {deg}
    0.0,                     !- X Origin {m}
    0.0,                     !- Y Origin {m}
    0.0,                     !- Z Origin {m}
    ,                        !- Type
    1;                       !- Multiplier

!-   ===========  ALL OBJECTS IN CLASS: ZONELIST ===========

  ZoneList,
    DORMITORIOS,             !- Name
    DORM_1,                  !- Zone 1 Name
    DORM_2;                  !- Zone 2 Name

!-   ===========  ALL OBJECTS IN CLASS: BUILDINGSURFACE:DETAILED ===========

  BuildingSurface:Detailed,
    91110F,                  !- Name
    Floor,                   !- Surface Type
    Exterior Floor,          !- Construction Name
    DORM_2,                  !- Zone Name
    Ground,                  !- Outside Boundary Condition
    ,                        !- Outside Boundary Condition Object
    NoSun,                   !- Sun Exposure
    NoWind,                  !- Wind Exposure
    ,                        !- View Factor to Ground
    4,                       !- Number of Vertices
    2.475000000000,2.975000000000,0.000000000000,  !- X,Y,Z ==> Vertex 1 {m}
    2.475000000000,0.000000000000,0.000000000000,  !- X,Y,Z ==> Vertex 2 {m}
    0.000000000000,0.000000000000,0.000000000000,  !- X,Y,Z ==> Vertex 3 {m}
    0.000000000000,2.975000000000,0.000000000000;  !- X,Y,Z ==> Vertex 4 {m}

  BuildingSurface:Detailed,
    A64F26,                  !- Name
    Wall,                    !- Surface Type
    Interior Wall,           !- Construction Name
    DORM_2,                  !- Zone Name
    Surface,                 !- Outside Boundary Condition
    7EC012,                  !- Outside Boundary Condition Object
    NoSun,                   !- Sun Exposure
    NoWind,                  !- Wind Exposure
    ,                        !- View Factor to Ground